 # crystal structure from transition.XV
 CRYSTAL
 # Cell vectors in Angstroem:
 PRIMVEC
   6.6304857   0.0000435   0.0000054
   3.3152810   5.7421560   0.0000491
   0.0000088   0.0000836  10.0257001
 # Atom coordinates in Angstroem:
 PRIMCOORD
    8    1
  15          1.65762925          0.95708910          4.98219432
  15          3.31526252          1.91408158          6.25041011
  15          3.31528451          3.82814231          4.98219283
  15          4.97289574          4.78517856          6.25040751
  15          6.63053672          3.82818735          4.98221717
  15          6.63046632          1.91410762          6.25037915
  15          4.97290004          0.95712435          4.98215219
  15          8.28815689          4.78521713          6.25041984
