 # crystal structure from transition.XV
 CRYSTAL
 # Cell vectors in Angstroem:
 PRIMVEC
   7.0205163   0.0396498  -0.0072271
   3.4757678   6.1001650  -0.0034123
  -0.0099933   0.0002083  10.0613694
 # Atom coordinates in Angstroem:
 PRIMCOORD
    8    1
  32          1.76994913          1.02324414          4.44378694
  15          3.47664989          2.01961161          6.00975494
  15          3.46451418          4.10095382          5.26516338
  15          5.26206255          5.15024499          6.01057091
  15          7.06804330          4.11982384          5.25667184
  15          7.08032988          2.04034712          6.01105555
  15          5.28435258          0.99006366          5.26125598
  32          8.76989661          5.11671729          6.82769413
