 # crystal structure from transition.XV
 CRYSTAL
 # Cell vectors in Angstroem:
 PRIMVEC
   7.9800002   0.0000000   0.0000000
   3.9900001   6.9108829   0.0000000
   0.0000000   0.0000000   9.9997382
 # Atom coordinates in Angstroem:
 PRIMCOORD
    8    1
  32          1.99503994          1.15183685          4.99986910
  32          3.98996018          2.30360458          6.21043740
  32          3.99003998          4.60727827          4.99986910
  32          5.98496021          5.75904601          6.21043740
  32          7.98004005          4.60727827          4.99986910
  32          7.97996025          2.30360458          6.21043740
  32          5.98504001          1.15183685          4.99986910
  32          9.97496029          5.75904601          6.21043740
